IEEE_model.glm
// European LV Test Feeder
// Converted from OpenDSS model by Yin Xu
// email: yxu2@eecs.wsu.edu

#set profiler=0
#set relax_naming_rules=1

//********************************************* 
clock {
    // timezone PST+8PDT;
    timezone GMT0+6GMT0;
    starttime '2019-09-30 00:00:00';
    stoptime '2019-09-30 23:59:00';
}

// clock{ 
// 	timezone EST+5EDT;
// 	timestamp '2019-09-30 0:00:00';
// 	stoptime '2000-01-02 0:00:00';
// }

//********************************************* 
// modules
module tape;
module powerflow{
	 solver_method NR;
	 default_maximum_voltage_error 1e-6;
	 NR_superLU_procs 1;
     nominal_frequency 50;
     current_frequency 50;
};

//********************************************* 
// Snapshots
// object voltdump 
// {
// 	 filename output_voltage_1.csv;
// 	 runtime '2019-09-30 00:01:00';
// 	 mode POLAR;
// }
// 
// object currdump
// {
// 	 filename output_current_1.csv;
// 	 runtime '2019-09-30 00:01:00';
// 	 mode POLAR;
// }
// 
// object voltdump 
// {
// 	 filename output_voltage_566.csv;
// 	 runtime '2019-09-30 09:26:00';
// 	 mode POLAR;
// }
// 
// object currdump
// {
// 	 filename output_current_566.csv;
// 	 runtime '2019-09-30 09:26:00';
// 	 mode POLAR;
// }
// 
// object voltdump 
// {
// 	 filename output_voltage_1440.csv;
// 	 runtime '2000-01-02 00:00:00';
// 	 mode POLAR;
// }
// 
// object currdump
// {
// 	 filename output_current_1440.csv;
// 	 runtime '2000-01-02 00:00:00';
// 	 mode POLAR;
// }

// Time series results
object recorder {
	 parent TR1;
	 property power_out.real,power_out.imag,power_out_A.real,power_out_A.imag,power_out_B.real,power_out_B.imag,power_out_C.real,power_out_C.imag;
	 // limit 0;
	 interval 60;
	 file "output_power.csv";
};

object recorder {
	 parent LOAD1;
	 property voltage_A.real,voltage_A.imag;
	 // limit 0;
	 interval 60;
	 file "Load1_voltage.csv";
};

object recorder {
	 parent LOAD32;
	 property voltage_C.real,voltage_C.imag;
	 limit 0;
	 interval 0;
	 file "Load32_voltage.csv";
};

object recorder {
	 parent LOAD53;
	 property voltage_B.real,voltage_B.imag;
	 limit 0;
	 interval 0;
	 file "Load53_voltage.csv";
};

//********************************************* 
// Nodes
object node {
	 name SourceBus;
	 phases ABC;
	 nominal_voltage 6350.852961;
	 voltage_A 6668.395609+0.0d;
	 voltage_B 6668.395609-120.0d;
	 voltage_C 6668.395609+120.0d;
	 bustype SWING;
}

object node {
	 name Bus1;
	 phases ABC;
	 nominal_voltage 240.177712;
}

object node {
	 name Bus2;
	 phases ABC;
	 nominal_voltage 240.177712;
}

object node {
	 name Bus3;
	 phases ABC;
	 nominal_voltage 240.177712;
}

object node {
	 name Bus4;
	 phases ABC;
	 nominal_voltage 240.177712;
}

object node {
	 name Bus5;
	 phases ABC;
	 nominal_voltage 240.177712;
}

object node {
	 name Bus6;
	 phases ABC;
	 nominal_voltage 240.177712;
}

object node {
	 name Bus7;
	 phases ABC;
	 nominal_voltage 240.177712;
}

object node {
	 name Bus8;
	 phases ABC;
	 nominal_voltage 240.177712;
}

object node {
	 name Bus9;
	 phases ABC;
	 nominal_voltage 240.177712;
}

object node {
	 name Bus10;
	 phases ABC;
	 nominal_voltage 240.177712;
}

object node {
	 name Bus11;
	 phases ABC;
	 nominal_voltage 240.177712;
}

object node {
	 name Bus12;
	 phases ABC;
	 nominal_voltage 240.177712;
}

object node {
	 name Bus13;
	 phases ABC;
	 nominal_voltage 240.177712;
}

object node {
	 name Bus14;
	 phases ABC;
	 nominal_voltage 240.177712;
}

object node {
	 name Bus15;
	 phases ABC;
	 nominal_voltage 240.177712;
}

object node {
	 name Bus16;
	 phases ABC;
	 nominal_voltage 240.177712;
}

object node {
	 name Bus17;
	 phases ABC;
	 nominal_voltage 240.177712;
}

object node {
	 name Bus18;
	 phases ABC;
	 nominal_voltage 240.177712;
}

object node {
	 name Bus19;
	 phases ABC;
	 nominal_voltage 240.177712;
}

object node {
	 name Bus20;
	 phases ABC;
	 nominal_voltage 240.177712;
}

object node {
	 name Bus21;
	 phases ABC;
	 nominal_voltage 240.177712;
}

object node {
	 name Bus22;
	 phases ABC;
	 nominal_voltage 240.177712;
}

object node {
	 name Bus23;
	 phases ABC;
	 nominal_voltage 240.177712;
}

object node {
	 name Bus24;
	 phases ABC;
	 nominal_voltage 240.177712;
}

object node {
	 name Bus25;
	 phases ABC;
	 nominal_voltage 240.177712;
}

object node {
	 name Bus26;
	 phases ABC;
	 nominal_voltage 240.177712;
}

object node {
	 name Bus27;
	 phases ABC;
	 nominal_voltage 240.177712;
}

object node {
	 name Bus28;
	 phases ABC;
	 nominal_voltage 240.177712;
}

object node {
	 name Bus29;
	 phases ABC;
	 nominal_voltage 240.177712;
}

object node {
	 name Bus30;
	 phases ABC;
	 nominal_voltage 240.177712;
}

object node {
	 name Bus31;
	 phases ABC;
	 nominal_voltage 240.177712;
}

object node {
	 name Bus32;
	 phases ABC;
	 nominal_voltage 240.177712;
}

object node {
	 name Bus33;
	 phases ABC;
	 nominal_voltage 240.177712;
}

object node {
	 name Bus34;
	 phases ABC;
	 nominal_voltage 240.177712;
}

object node {
	 name Bus35;
	 phases ABC;
	 nominal_voltage 240.177712;
}

object node {
	 name Bus36;
	 phases ABC;
	 nominal_voltage 240.177712;
}

object node {
	 name Bus37;
	 phases ABC;
	 nominal_voltage 240.177712;
}

object node {
	 name Bus38;
	 phases ABC;
	 nominal_voltage 240.177712;
}

object node {
	 name Bus39;
	 phases ABC;
	 nominal_voltage 240.177712;
}

object node {
	 name Bus40;
	 phases ABC;
	 nominal_voltage 240.177712;
}

object node {
	 name Bus41;
	 phases ABC;
	 nominal_voltage 240.177712;
}

object node {
	 name Bus42;
	 phases ABC;
	 nominal_voltage 240.177712;
}

object node {
	 name Bus43;
	 phases ABC;
	 nominal_voltage 240.177712;
}

object node {
	 name Bus44;
	 phases ABC;
	 nominal_voltage 240.177712;
}

object node {
	 name Bus45;
	 phases ABC;
	 nominal_voltage 240.177712;
}

object node {
	 name Bus46;
	 phases ABC;
	 nominal_voltage 240.177712;
}

object node {
	 name Bus47;
	 phases ABC;
	 nominal_voltage 240.177712;
}

object node {
	 name Bus48;
	 phases ABC;
	 nominal_voltage 240.177712;
}

object node {
	 name Bus49;
	 phases ABC;
	 nominal_voltage 240.177712;
}

object node {
	 name Bus50;
	 phases ABC;
	 nominal_voltage 240.177712;
}

object node {
	 name Bus51;
	 phases ABC;
	 nominal_voltage 240.177712;
}

object node {
	 name Bus52;
	 phases ABC;
	 nominal_voltage 240.177712;
}

object node {
	 name Bus53;
	 phases ABC;
	 nominal_voltage 240.177712;
}

object node {
	 name Bus54;
	 phases ABC;
	 nominal_voltage 240.177712;
}

object node {
	 name Bus55;
	 phases ABC;
	 nominal_voltage 240.177712;
}

object node {
	 name Bus56;
	 phases ABC;
	 nominal_voltage 240.177712;
}

object node {
	 name Bus57;
	 phases ABC;
	 nominal_voltage 240.177712;
}

object node {
	 name Bus58;
	 phases ABC;
	 nominal_voltage 240.177712;
}

object node {
	 name Bus59;
	 phases ABC;
	 nominal_voltage 240.177712;
}

object node {
	 name Bus60;
	 phases ABC;
	 nominal_voltage 240.177712;
}

object node {
	 name Bus61;
	 phases ABC;
	 nominal_voltage 240.177712;
}

object node {
	 name Bus62;
	 phases ABC;
	 nominal_voltage 240.177712;
}

object node {
	 name Bus63;
	 phases ABC;
	 nominal_voltage 240.177712;
}

object node {
	 name Bus64;
	 phases ABC;
	 nominal_voltage 240.177712;
}

object node {
	 name Bus65;
	 phases ABC;
	 nominal_voltage 240.177712;
}

object node {
	 name Bus66;
	 phases ABC;
	 nominal_voltage 240.177712;
}

object node {
	 name Bus67;
	 phases ABC;
	 nominal_voltage 240.177712;
}

object node {
	 name Bus68;
	 phases ABC;
	 nominal_voltage 240.177712;
}

object node {
	 name Bus69;
	 phases ABC;
	 nominal_voltage 240.177712;
}

object node {
	 name Bus70;
	 phases ABC;
	 nominal_voltage 240.177712;
}

object node {
	 name Bus71;
	 phases ABC;
	 nominal_voltage 240.177712;
}

object node {
	 name Bus72;
	 phases ABC;
	 nominal_voltage 240.177712;
}

object node {
	 name Bus73;
	 phases ABC;
	 nominal_voltage 240.177712;
}

object node {
	 name Bus74;
	 phases ABC;
	 nominal_voltage 240.177712;
}

object node {
	 name Bus75;
	 phases ABC;
	 nominal_voltage 240.177712;
}

object node {
	 name Bus76;
	 phases ABC;
	 nominal_voltage 240.177712;
}

object node {
	 name Bus77;
	 phases ABC;
	 nominal_voltage 240.177712;
}

object node {
	 name Bus78;
	 phases ABC;
	 nominal_voltage 240.177712;
}

object node {
	 name Bus79;
	 phases ABC;
	 nominal_voltage 240.177712;
}

object node {
	 name Bus80;
	 phases ABC;
	 nominal_voltage 240.177712;
}

object node {
	 name Bus81;
	 phases ABC;
	 nominal_voltage 240.177712;
}

object node {
	 name Bus82;
	 phases ABC;
	 nominal_voltage 240.177712;
}

object node {
	 name Bus83;
	 phases ABC;
	 nominal_voltage 240.177712;
}

object node {
	 name Bus84;
	 phases ABC;
	 nominal_voltage 240.177712;
}

object node {
	 name Bus85;
	 phases ABC;
	 nominal_voltage 240.177712;
}

object node {
	 name Bus86;
	 phases ABC;
	 nominal_voltage 240.177712;
}

object node {
	 name Bus87;
	 phases ABC;
	 nominal_voltage 240.177712;
}

object node {
	 name Bus88;
	 phases ABC;
	 nominal_voltage 240.177712;
}

object node {
	 name Bus89;
	 phases ABC;
	 nominal_voltage 240.177712;
}

object node {
	 name Bus90;
	 phases ABC;
	 nominal_voltage 240.177712;
}

object node {
	 name Bus91;
	 phases ABC;
	 nominal_voltage 240.177712;
}

object node {
	 name Bus92;
	 phases ABC;
	 nominal_voltage 240.177712;
}

object node {
	 name Bus93;
	 phases ABC;
	 nominal_voltage 240.177712;
}

object node {
	 name Bus94;
	 phases ABC;
	 nominal_voltage 240.177712;
}

object node {
	 name Bus95;
	 phases ABC;
	 nominal_voltage 240.177712;
}

object node {
	 name Bus96;
	 phases ABC;
	 nominal_voltage 240.177712;
}

object node {
	 name Bus97;
	 phases ABC;
	 nominal_voltage 240.177712;
}

object node {
	 name Bus98;
	 phases ABC;
	 nominal_voltage 240.177712;
}

object node {
	 name Bus99;
	 phases ABC;
	 nominal_voltage 240.177712;
}

object node {
	 name Bus100;
	 phases ABC;
	 nominal_voltage 240.177712;
}

object node {
	 name Bus101;
	 phases ABC;
	 nominal_voltage 240.177712;
}

object node {
	 name Bus102;
	 phases ABC;
	 nominal_voltage 240.177712;
}

object node {
	 name Bus103;
	 phases ABC;
	 nominal_voltage 240.177712;
}

object node {
	 name Bus104;
	 phases ABC;
	 nominal_voltage 240.177712;
}

object node {
	 name Bus105;
	 phases ABC;
	 nominal_voltage 240.177712;
}

object node {
	 name Bus106;
	 phases ABC;
	 nominal_voltage 240.177712;
}

object node {
	 name Bus107;
	 phases ABC;
	 nominal_voltage 240.177712;
}

object node {
	 name Bus108;
	 phases ABC;
	 nominal_voltage 240.177712;
}

object node {
	 name Bus109;
	 phases ABC;
	 nominal_voltage 240.177712;
}

object node {
	 name Bus110;
	 phases ABC;
	 nominal_voltage 240.177712;
}

object node {
	 name Bus111;
	 phases ABC;
	 nominal_voltage 240.177712;
}

object node {
	 name Bus112;
	 phases ABC;
	 nominal_voltage 240.177712;
}

object node {
	 name Bus113;
	 phases ABC;
	 nominal_voltage 240.177712;
}

object node {
	 name Bus114;
	 phases ABC;
	 nominal_voltage 240.177712;
}

object node {
	 name Bus115;
	 phases ABC;
	 nominal_voltage 240.177712;
}

object node {
	 name Bus116;
	 phases ABC;
	 nominal_voltage 240.177712;
}

object node {
	 name Bus117;
	 phases ABC;
	 nominal_voltage 240.177712;
}

object node {
	 name Bus118;
	 phases ABC;
	 nominal_voltage 240.177712;
}

object node {
	 name Bus119;
	 phases ABC;
	 nominal_voltage 240.177712;
}

object node {
	 name Bus120;
	 phases ABC;
	 nominal_voltage 240.177712;
}

object node {
	 name Bus121;
	 phases ABC;
	 nominal_voltage 240.177712;
}

object node {
	 name Bus122;
	 phases ABC;
	 nominal_voltage 240.177712;
}

object node {
	 name Bus123;
	 phases ABC;
	 nominal_voltage 240.177712;
}

object node {
	 name Bus124;
	 phases ABC;
	 nominal_voltage 240.177712;
}

object node {
	 name Bus125;
	 phases ABC;
	 nominal_voltage 240.177712;
}

object node {
	 name Bus126;
	 phases ABC;
	 nominal_voltage 240.177712;
}

object node {
	 name Bus127;
	 phases ABC;
	 nominal_voltage 240.177712;
}

object node {
	 name Bus128;
	 phases ABC;
	 nominal_voltage 240.177712;
}

object node {
	 name Bus129;
	 phases ABC;
	 nominal_voltage 240.177712;
}

object node {
	 name Bus130;
	 phases ABC;
	 nominal_voltage 240.177712;
}

object node {
	 name Bus131;
	 phases ABC;
	 nominal_voltage 240.177712;
}

object node {
	 name Bus132;
	 phases ABC;
	 nominal_voltage 240.177712;
}

object node {
	 name Bus133;
	 phases ABC;
	 nominal_voltage 240.177712;
}

object node {
	 name Bus134;
	 phases ABC;
	 nominal_voltage 240.177712;
}

object node {
	 name Bus135;
	 phases ABC;
	 nominal_voltage 240.177712;
}

object node {
	 name Bus136;
	 phases ABC;
	 nominal_voltage 240.177712;
}

object node {
	 name Bus137;
	 phases ABC;
	 nominal_voltage 240.177712;
}

object node {
	 name Bus138;
	 phases ABC;
	 nominal_voltage 240.177712;
}

object node {
	 name Bus139;
	 phases ABC;
	 nominal_voltage 240.177712;
}

object node {
	 name Bus140;
	 phases ABC;
	 nominal_voltage 240.177712;
}

object node {
	 name Bus141;
	 phases ABC;
	 nominal_voltage 240.177712;
}

object node {
	 name Bus142;
	 phases ABC;
	 nominal_voltage 240.177712;
}

object node {
	 name Bus143;
	 phases ABC;
	 nominal_voltage 240.177712;
}

object node {
	 name Bus144;
	 phases ABC;
	 nominal_voltage 240.177712;
}

object node {
	 name Bus145;
	 phases ABC;
	 nominal_voltage 240.177712;
}

object node {
	 name Bus146;
	 phases ABC;
	 nominal_voltage 240.177712;
}

object node {
	 name Bus147;
	 phases ABC;
	 nominal_voltage 240.177712;
}

object node {
	 name Bus148;
	 phases ABC;
	 nominal_voltage 240.177712;
}

object node {
	 name Bus149;
	 phases ABC;
	 nominal_voltage 240.177712;
}

object node {
	 name Bus150;
	 phases ABC;
	 nominal_voltage 240.177712;
}

object node {
	 name Bus151;
	 phases ABC;
	 nominal_voltage 240.177712;
}

object node {
	 name Bus152;
	 phases ABC;
	 nominal_voltage 240.177712;
}

object node {
	 name Bus153;
	 phases ABC;
	 nominal_voltage 240.177712;
}

object node {
	 name Bus154;
	 phases ABC;
	 nominal_voltage 240.177712;
}

object node {
	 name Bus155;
	 phases ABC;
	 nominal_voltage 240.177712;
}

object node {
	 name Bus156;
	 phases ABC;
	 nominal_voltage 240.177712;
}

object node {
	 name Bus157;
	 phases ABC;
	 nominal_voltage 240.177712;
}

object node {
	 name Bus158;
	 phases ABC;
	 nominal_voltage 240.177712;
}

object node {
	 name Bus159;
	 phases ABC;
	 nominal_voltage 240.177712;
}

object node {
	 name Bus160;
	 phases ABC;
	 nominal_voltage 240.177712;
}

object node {
	 name Bus161;
	 phases ABC;
	 nominal_voltage 240.177712;
}

object node {
	 name Bus162;
	 phases ABC;
	 nominal_voltage 240.177712;
}

object node {
	 name Bus163;
	 phases ABC;
	 nominal_voltage 240.177712;
}

object node {
	 name Bus164;
	 phases ABC;
	 nominal_voltage 240.177712;
}

object node {
	 name Bus165;
	 phases ABC;
	 nominal_voltage 240.177712;
}

object node {
	 name Bus166;
	 phases ABC;
	 nominal_voltage 240.177712;
}

object node {
	 name Bus167;
	 phases ABC;
	 nominal_voltage 240.177712;
}

object node {
	 name Bus168;
	 phases ABC;
	 nominal_voltage 240.177712;
}

object node {
	 name Bus169;
	 phases ABC;
	 nominal_voltage 240.177712;
}

object node {
	 name Bus170;
	 phases ABC;
	 nominal_voltage 240.177712;
}

object node {
	 name Bus171;
	 phases ABC;
	 nominal_voltage 240.177712;
}

object node {
	 name Bus172;
	 phases ABC;
	 nominal_voltage 240.177712;
}

object node {
	 name Bus173;
	 phases ABC;
	 nominal_voltage 240.177712;
}

object node {
	 name Bus174;
	 phases ABC;
	 nominal_voltage 240.177712;
}

object node {
	 name Bus175;
	 phases ABC;
	 nominal_voltage 240.177712;
}

object node {
	 name Bus176;
	 phases ABC;
	 nominal_voltage 240.177712;
}

object node {
	 name Bus177;
	 phases ABC;
	 nominal_voltage 240.177712;
}

object node {
	 name Bus178;
	 phases ABC;
	 nominal_voltage 240.177712;
}

object node {
	 name Bus179;
	 phases ABC;
	 nominal_voltage 240.177712;
}

object node {
	 name Bus180;
	 phases ABC;
	 nominal_voltage 240.177712;
}

object node {
	 name Bus181;
	 phases ABC;
	 nominal_voltage 240.177712;
}

object node {
	 name Bus182;
	 phases ABC;
	 nominal_voltage 240.177712;
}

object node {
	 name Bus183;
	 phases ABC;
	 nominal_voltage 240.177712;
}

object node {
	 name Bus184;
	 phases ABC;
	 nominal_voltage 240.177712;
}

object node {
	 name Bus185;
	 phases ABC;
	 nominal_voltage 240.177712;
}

object node {
	 name Bus186;
	 phases ABC;
	 nominal_voltage 240.177712;
}

object node {
	 name Bus187;
	 phases ABC;
	 nominal_voltage 240.177712;
}

object node {
	 name Bus188;
	 phases ABC;
	 nominal_voltage 240.177712;
}

object node {
	 name Bus189;
	 phases ABC;
	 nominal_voltage 240.177712;
}

object node {
	 name Bus190;
	 phases ABC;
	 nominal_voltage 240.177712;
}

object node {
	 name Bus191;
	 phases ABC;
	 nominal_voltage 240.177712;
}

object node {
	 name Bus192;
	 phases ABC;
	 nominal_voltage 240.177712;
}

object node {
	 name Bus193;
	 phases ABC;
	 nominal_voltage 240.177712;
}

object node {
	 name Bus194;
	 phases ABC;
	 nominal_voltage 240.177712;
}

object node {
	 name Bus195;
	 phases ABC;
	 nominal_voltage 240.177712;
}

object node {
	 name Bus196;
	 phases ABC;
	 nominal_voltage 240.177712;
}

object node {
	 name Bus197;
	 phases ABC;
	 nominal_voltage 240.177712;
}

object node {
	 name Bus198;
	 phases ABC;
	 nominal_voltage 240.177712;
}

object node {
	 name Bus199;
	 phases ABC;
	 nominal_voltage 240.177712;
}

object node {
	 name Bus200;
	 phases ABC;
	 nominal_voltage 240.177712;
}

object node {
	 name Bus201;
	 phases ABC;
	 nominal_voltage 240.177712;
}

object node {
	 name Bus202;
	 phases ABC;
	 nominal_voltage 240.177712;
}

object node {
	 name Bus203;
	 phases ABC;
	 nominal_voltage 240.177712;
}

object node {
	 name Bus204;
	 phases ABC;
	 nominal_voltage 240.177712;
}

object node {
	 name Bus205;
	 phases ABC;
	 nominal_voltage 240.177712;
}

object node {
	 name Bus206;
	 phases ABC;
	 nominal_voltage 240.177712;
}

object node {
	 name Bus207;
	 phases ABC;
	 nominal_voltage 240.177712;
}

object node {
	 name Bus208;
	 phases ABC;
	 nominal_voltage 240.177712;
}

object node {
	 name Bus209;
	 phases ABC;
	 nominal_voltage 240.177712;
}

object node {
	 name Bus210;
	 phases ABC;
	 nominal_voltage 240.177712;
}

object node {
	 name Bus211;
	 phases ABC;
	 nominal_voltage 240.177712;
}

object node {
	 name Bus212;
	 phases ABC;
	 nominal_voltage 240.177712;
}

object node {
	 name Bus213;
	 phases ABC;
	 nominal_voltage 240.177712;
}

object node {
	 name Bus214;
	 phases ABC;
	 nominal_voltage 240.177712;
}

object node {
	 name Bus215;
	 phases ABC;
	 nominal_voltage 240.177712;
}

object node {
	 name Bus216;
	 phases ABC;
	 nominal_voltage 240.177712;
}

object node {
	 name Bus217;
	 phases ABC;
	 nominal_voltage 240.177712;
}

object node {
	 name Bus218;
	 phases ABC;
	 nominal_voltage 240.177712;
}

object node {
	 name Bus219;
	 phases ABC;
	 nominal_voltage 240.177712;
}

object node {
	 name Bus220;
	 phases ABC;
	 nominal_voltage 240.177712;
}

object node {
	 name Bus221;
	 phases ABC;
	 nominal_voltage 240.177712;
}

object node {
	 name Bus222;
	 phases ABC;
	 nominal_voltage 240.177712;
}

object node {
	 name Bus223;
	 phases ABC;
	 nominal_voltage 240.177712;
}

object node {
	 name Bus224;
	 phases ABC;
	 nominal_voltage 240.177712;
}

object node {
	 name Bus225;
	 phases ABC;
	 nominal_voltage 240.177712;
}

object node {
	 name Bus226;
	 phases ABC;
	 nominal_voltage 240.177712;
}

object node {
	 name Bus227;
	 phases ABC;
	 nominal_voltage 240.177712;
}

object node {
	 name Bus228;
	 phases ABC;
	 nominal_voltage 240.177712;
}

object node {
	 name Bus229;
	 phases ABC;
	 nominal_voltage 240.177712;
}

object node {
	 name Bus230;
	 phases ABC;
	 nominal_voltage 240.177712;
}

object node {
	 name Bus231;
	 phases ABC;
	 nominal_voltage 240.177712;
}

object node {
	 name Bus232;
	 phases ABC;
	 nominal_voltage 240.177712;
}

object node {
	 name Bus233;
	 phases ABC;
	 nominal_voltage 240.177712;
}

object node {
	 name Bus234;
	 phases ABC;
	 nominal_voltage 240.177712;
}

object node {
	 name Bus235;
	 phases ABC;
	 nominal_voltage 240.177712;
}

object node {
	 name Bus236;
	 phases ABC;
	 nominal_voltage 240.177712;
}

object node {
	 name Bus237;
	 phases ABC;
	 nominal_voltage 240.177712;
}

object node {
	 name Bus238;
	 phases ABC;
	 nominal_voltage 240.177712;
}

object node {
	 name Bus239;
	 phases ABC;
	 nominal_voltage 240.177712;
}

object node {
	 name Bus240;
	 phases ABC;
	 nominal_voltage 240.177712;
}

object node {
	 name Bus241;
	 phases ABC;
	 nominal_voltage 240.177712;
}

object node {
	 name Bus242;
	 phases ABC;
	 nominal_voltage 240.177712;
}

object node {
	 name Bus243;
	 phases ABC;
	 nominal_voltage 240.177712;
}

object node {
	 name Bus244;
	 phases ABC;
	 nominal_voltage 240.177712;
}

object node {
	 name Bus245;
	 phases ABC;
	 nominal_voltage 240.177712;
}

object node {
	 name Bus246;
	 phases ABC;
	 nominal_voltage 240.177712;
}

object node {
	 name Bus247;
	 phases ABC;
	 nominal_voltage 240.177712;
}

object node {
	 name Bus248;
	 phases ABC;
	 nominal_voltage 240.177712;
}

object node {
	 name Bus249;
	 phases ABC;
	 nominal_voltage 240.177712;
}

object node {
	 name Bus250;
	 phases ABC;
	 nominal_voltage 240.177712;
}

object node {
	 name Bus251;
	 phases ABC;
	 nominal_voltage 240.177712;
}

object node {
	 name Bus252;
	 phases ABC;
	 nominal_voltage 240.177712;
}

object node {
	 name Bus253;
	 phases ABC;
	 nominal_voltage 240.177712;
}

object node {
	 name Bus254;
	 phases ABC;
	 nominal_voltage 240.177712;
}

object node {
	 name Bus255;
	 phases ABC;
	 nominal_voltage 240.177712;
}

object node {
	 name Bus256;
	 phases ABC;
	 nominal_voltage 240.177712;
}

object node {
	 name Bus257;
	 phases ABC;
	 nominal_voltage 240.177712;
}

object node {
	 name Bus258;
	 phases ABC;
	 nominal_voltage 240.177712;
}

object node {
	 name Bus259;
	 phases ABC;
	 nominal_voltage 240.177712;
}

object node {
	 name Bus260;
	 phases ABC;
	 nominal_voltage 240.177712;
}

object node {
	 name Bus261;
	 phases ABC;
	 nominal_voltage 240.177712;
}

object node {
	 name Bus262;
	 phases ABC;
	 nominal_voltage 240.177712;
}

object node {
	 name Bus263;
	 phases ABC;
	 nominal_voltage 240.177712;
}

object node {
	 name Bus264;
	 phases ABC;
	 nominal_voltage 240.177712;
}

object node {
	 name Bus265;
	 phases ABC;
	 nominal_voltage 240.177712;
}

object node {
	 name Bus266;
	 phases ABC;
	 nominal_voltage 240.177712;
}

object node {
	 name Bus267;
	 phases ABC;
	 nominal_voltage 240.177712;
}

object node {
	 name Bus268;
	 phases ABC;
	 nominal_voltage 240.177712;
}

object node {
	 name Bus269;
	 phases ABC;
	 nominal_voltage 240.177712;
}

object node {
	 name Bus270;
	 phases ABC;
	 nominal_voltage 240.177712;
}

object node {
	 name Bus271;
	 phases ABC;
	 nominal_voltage 240.177712;
}

object node {
	 name Bus272;
	 phases ABC;
	 nominal_voltage 240.177712;
}

object node {
	 name Bus273;
	 phases ABC;
	 nominal_voltage 240.177712;
}

object node {
	 name Bus274;
	 phases ABC;
	 nominal_voltage 240.177712;
}

object node {
	 name Bus275;
	 phases ABC;
	 nominal_voltage 240.177712;
}

object node {
	 name Bus276;
	 phases ABC;
	 nominal_voltage 240.177712;
}

object node {
	 name Bus277;
	 phases ABC;
	 nominal_voltage 240.177712;
}

object node {
	 name Bus278;
	 phases ABC;
	 nominal_voltage 240.177712;
}

object node {
	 name Bus279;
	 phases ABC;
	 nominal_voltage 240.177712;
}

object node {
	 name Bus280;
	 phases ABC;
	 nominal_voltage 240.177712;
}

object node {
	 name Bus281;
	 phases ABC;
	 nominal_voltage 240.177712;
}

object node {
	 name Bus282;
	 phases ABC;
	 nominal_voltage 240.177712;
}

object node {
	 name Bus283;
	 phases ABC;
	 nominal_voltage 240.177712;
}

object node {
	 name Bus284;
	 phases ABC;
	 nominal_voltage 240.177712;
}

object node {
	 name Bus285;
	 phases ABC;
	 nominal_voltage 240.177712;
}

object node {
	 name Bus286;
	 phases ABC;
	 nominal_voltage 240.177712;
}

object node {
	 name Bus287;
	 phases ABC;
	 nominal_voltage 240.177712;
}

object node {
	 name Bus288;
	 phases ABC;
	 nominal_voltage 240.177712;
}

object node {
	 name Bus289;
	 phases ABC;
	 nominal_voltage 240.177712;
}

object node {
	 name Bus290;
	 phases ABC;
	 nominal_voltage 240.177712;
}

object node {
	 name Bus291;
	 phases ABC;
	 nominal_voltage 240.177712;
}

object node {
	 name Bus292;
	 phases ABC;
	 nominal_voltage 240.177712;
}

object node {
	 name Bus293;
	 phases ABC;
	 nominal_voltage 240.177712;
}

object node {
	 name Bus294;
	 phases ABC;
	 nominal_voltage 240.177712;
}

object node {
	 name Bus295;
	 phases ABC;
	 nominal_voltage 240.177712;
}

object node {
	 name Bus296;
	 phases ABC;
	 nominal_voltage 240.177712;
}

object node {
	 name Bus297;
	 phases ABC;
	 nominal_voltage 240.177712;
}

object node {
	 name Bus298;
	 phases ABC;
	 nominal_voltage 240.177712;
}

object node {
	 name Bus299;
	 phases ABC;
	 nominal_voltage 240.177712;
}

object node {
	 name Bus300;
	 phases ABC;
	 nominal_voltage 240.177712;
}

object node {
	 name Bus301;
	 phases ABC;
	 nominal_voltage 240.177712;
}

object node {
	 name Bus302;
	 phases ABC;
	 nominal_voltage 240.177712;
}

object node {
	 name Bus303;
	 phases ABC;
	 nominal_voltage 240.177712;
}

object node {
	 name Bus304;
	 phases ABC;
	 nominal_voltage 240.177712;
}

object node {
	 name Bus305;
	 phases ABC;
	 nominal_voltage 240.177712;
}

object node {
	 name Bus306;
	 phases ABC;
	 nominal_voltage 240.177712;
}

object node {
	 name Bus307;
	 phases ABC;
	 nominal_voltage 240.177712;
}

object node {
	 name Bus308;
	 phases ABC;
	 nominal_voltage 240.177712;
}

object node {
	 name Bus309;
	 phases ABC;
	 nominal_voltage 240.177712;
}

object node {
	 name Bus310;
	 phases ABC;
	 nominal_voltage 240.177712;
}

object node {
	 name Bus311;
	 phases ABC;
	 nominal_voltage 240.177712;
}

object node {
	 name Bus312;
	 phases ABC;
	 nominal_voltage 240.177712;
}

object node {
	 name Bus313;
	 phases ABC;
	 nominal_voltage 240.177712;
}

object node {
	 name Bus314;
	 phases ABC;
	 nominal_voltage 240.177712;
}

object node {
	 name Bus315;
	 phases ABC;
	 nominal_voltage 240.177712;
}

object node {
	 name Bus316;
	 phases ABC;
	 nominal_voltage 240.177712;
}

object node {
	 name Bus317;
	 phases ABC;
	 nominal_voltage 240.177712;
}

object node {
	 name Bus318;
	 phases ABC;
	 nominal_voltage 240.177712;
}

object node {
	 name Bus319;
	 phases ABC;
	 nominal_voltage 240.177712;
}

object node {
	 name Bus320;
	 phases ABC;
	 nominal_voltage 240.177712;
}

object node {
	 name Bus321;
	 phases ABC;
	 nominal_voltage 240.177712;
}

object node {
	 name Bus322;
	 phases ABC;
	 nominal_voltage 240.177712;
}

object node {
	 name Bus323;
	 phases ABC;
	 nominal_voltage 240.177712;
}

object node {
	 name Bus324;
	 phases ABC;
	 nominal_voltage 240.177712;
}

object node {
	 name Bus325;
	 phases ABC;
	 nominal_voltage 240.177712;
}

object node {
	 name Bus326;
	 phases ABC;
	 nominal_voltage 240.177712;
}

object node {
	 name Bus327;
	 phases ABC;
	 nominal_voltage 240.177712;
}

object node {
	 name Bus328;
	 phases ABC;
	 nominal_voltage 240.177712;
}

object node {
	 name Bus329;
	 phases ABC;
	 nominal_voltage 240.177712;
}

object node {
	 name Bus330;
	 phases ABC;
	 nominal_voltage 240.177712;
}

object node {
	 name Bus331;
	 phases ABC;
	 nominal_voltage 240.177712;
}

object node {
	 name Bus332;
	 phases ABC;
	 nominal_voltage 240.177712;
}

object node {
	 name Bus333;
	 phases ABC;
	 nominal_voltage 240.177712;
}

object node {
	 name Bus334;
	 phases ABC;
	 nominal_voltage 240.177712;
}

object node {
	 name Bus335;
	 phases ABC;
	 nominal_voltage 240.177712;
}

object node {
	 name Bus336;
	 phases ABC;
	 nominal_voltage 240.177712;
}

object node {
	 name Bus337;
	 phases ABC;
	 nominal_voltage 240.177712;
}

object node {
	 name Bus338;
	 phases ABC;
	 nominal_voltage 240.177712;
}

object node {
	 name Bus339;
	 phases ABC;
	 nominal_voltage 240.177712;
}

object node {
	 name Bus340;
	 phases ABC;
	 nominal_voltage 240.177712;
}

object node {
	 name Bus341;
	 phases ABC;
	 nominal_voltage 240.177712;
}

object node {
	 name Bus342;
	 phases ABC;
	 nominal_voltage 240.177712;
}

object node {
	 name Bus343;
	 phases ABC;
	 nominal_voltage 240.177712;
}

object node {
	 name Bus344;
	 phases ABC;
	 nominal_voltage 240.177712;
}

object node {
	 name Bus345;
	 phases ABC;
	 nominal_voltage 240.177712;
}

object node {
	 name Bus346;
	 phases ABC;
	 nominal_voltage 240.177712;
}

object node {
	 name Bus347;
	 phases ABC;
	 nominal_voltage 240.177712;
}

object node {
	 name Bus348;
	 phases ABC;
	 nominal_voltage 240.177712;
}

object node {
	 name Bus349;
	 phases ABC;
	 nominal_voltage 240.177712;
}

object node {
	 name Bus350;
	 phases ABC;
	 nominal_voltage 240.177712;
}

object node {
	 name Bus351;
	 phases ABC;
	 nominal_voltage 240.177712;
}

object node {
	 name Bus352;
	 phases ABC;
	 nominal_voltage 240.177712;
}

object node {
	 name Bus353;
	 phases ABC;
	 nominal_voltage 240.177712;
}

object node {
	 name Bus354;
	 phases ABC;
	 nominal_voltage 240.177712;
}

object node {
	 name Bus355;
	 phases ABC;
	 nominal_voltage 240.177712;
}

object node {
	 name Bus356;
	 phases ABC;
	 nominal_voltage 240.177712;
}

object node {
	 name Bus357;
	 phases ABC;
	 nominal_voltage 240.177712;
}

object node {
	 name Bus358;
	 phases ABC;
	 nominal_voltage 240.177712;
}

object node {
	 name Bus359;
	 phases ABC;
	 nominal_voltage 240.177712;
}

object node {
	 name Bus360;
	 phases ABC;
	 nominal_voltage 240.177712;
}

object node {
	 name Bus361;
	 phases ABC;
	 nominal_voltage 240.177712;
}

object node {
	 name Bus362;
	 phases ABC;
	 nominal_voltage 240.177712;
}

object node {
	 name Bus363;
	 phases ABC;
	 nominal_voltage 240.177712;
}

object node {
	 name Bus364;
	 phases ABC;
	 nominal_voltage 240.177712;
}

object node {
	 name Bus365;
	 phases ABC;
	 nominal_voltage 240.177712;
}

object node {
	 name Bus366;
	 phases ABC;
	 nominal_voltage 240.177712;
}

object node {
	 name Bus367;
	 phases ABC;
	 nominal_voltage 240.177712;
}

object node {
	 name Bus368;
	 phases ABC;
	 nominal_voltage 240.177712;
}

object node {
	 name Bus369;
	 phases ABC;
	 nominal_voltage 240.177712;
}

object node {
	 name Bus370;
	 phases ABC;
	 nominal_voltage 240.177712;
}

object node {
	 name Bus371;
	 phases ABC;
	 nominal_voltage 240.177712;
}

object node {
	 name Bus372;
	 phases ABC;
	 nominal_voltage 240.177712;
}

object node {
	 name Bus373;
	 phases ABC;
	 nominal_voltage 240.177712;
}

object node {
	 name Bus374;
	 phases ABC;
	 nominal_voltage 240.177712;
}

object node {
	 name Bus375;
	 phases ABC;
	 nominal_voltage 240.177712;
}

object node {
	 name Bus376;
	 phases ABC;
	 nominal_voltage 240.177712;
}

object node {
	 name Bus377;
	 phases ABC;
	 nominal_voltage 240.177712;
}

object node {
	 name Bus378;
	 phases ABC;
	 nominal_voltage 240.177712;
}

object node {
	 name Bus379;
	 phases ABC;
	 nominal_voltage 240.177712;
}

object node {
	 name Bus380;
	 phases ABC;
	 nominal_voltage 240.177712;
}

object node {
	 name Bus381;
	 phases ABC;
	 nominal_voltage 240.177712;
}

object node {
	 name Bus382;
	 phases ABC;
	 nominal_voltage 240.177712;
}

object node {
	 name Bus383;
	 phases ABC;
	 nominal_voltage 240.177712;
}

object node {
	 name Bus384;
	 phases ABC;
	 nominal_voltage 240.177712;
}

object node {
	 name Bus385;
	 phases ABC;
	 nominal_voltage 240.177712;
}

object node {
	 name Bus386;
	 phases ABC;
	 nominal_voltage 240.177712;
}

object node {
	 name Bus387;
	 phases ABC;
	 nominal_voltage 240.177712;
}

object node {
	 name Bus388;
	 phases ABC;
	 nominal_voltage 240.177712;
}

object node {
	 name Bus389;
	 phases ABC;
	 nominal_voltage 240.177712;
}

object node {
	 name Bus390;
	 phases ABC;
	 nominal_voltage 240.177712;
}

object node {
	 name Bus391;
	 phases ABC;
	 nominal_voltage 240.177712;
}

object node {
	 name Bus392;
	 phases ABC;
	 nominal_voltage 240.177712;
}

object node {
	 name Bus393;
	 phases ABC;
	 nominal_voltage 240.177712;
}

object node {
	 name Bus394;
	 phases ABC;
	 nominal_voltage 240.177712;
}

object node {
	 name Bus395;
	 phases ABC;
	 nominal_voltage 240.177712;
}

object node {
	 name Bus396;
	 phases ABC;
	 nominal_voltage 240.177712;
}

object node {
	 name Bus397;
	 phases ABC;
	 nominal_voltage 240.177712;
}

object node {
	 name Bus398;
	 phases ABC;
	 nominal_voltage 240.177712;
}

object node {
	 name Bus399;
	 phases ABC;
	 nominal_voltage 240.177712;
}

object node {
	 name Bus400;
	 phases ABC;
	 nominal_voltage 240.177712;
}

object node {
	 name Bus401;
	 phases ABC;
	 nominal_voltage 240.177712;
}

object node {
	 name Bus402;
	 phases ABC;
	 nominal_voltage 240.177712;
}

object node {
	 name Bus403;
	 phases ABC;
	 nominal_voltage 240.177712;
}

object node {
	 name Bus404;
	 phases ABC;
	 nominal_voltage 240.177712;
}

object node {
	 name Bus405;
	 phases ABC;
	 nominal_voltage 240.177712;
}

object node {
	 name Bus406;
	 phases ABC;
	 nominal_voltage 240.177712;
}

object node {
	 name Bus407;
	 phases ABC;
	 nominal_voltage 240.177712;
}

object node {
	 name Bus408;
	 phases ABC;
	 nominal_voltage 240.177712;
}

object node {
	 name Bus409;
	 phases ABC;
	 nominal_voltage 240.177712;
}

object node {
	 name Bus410;
	 phases ABC;
	 nominal_voltage 240.177712;
}

object node {
	 name Bus411;
	 phases ABC;
	 nominal_voltage 240.177712;
}

object node {
	 name Bus412;
	 phases ABC;
	 nominal_voltage 240.177712;
}

object node {
	 name Bus413;
	 phases ABC;
	 nominal_voltage 240.177712;
}

object node {
	 name Bus414;
	 phases ABC;
	 nominal_voltage 240.177712;
}

object node {
	 name Bus415;
	 phases ABC;
	 nominal_voltage 240.177712;
}

object node {
	 name Bus416;
	 phases ABC;
	 nominal_voltage 240.177712;
}

object node {
	 name Bus417;
	 phases ABC;
	 nominal_voltage 240.177712;
}

object node {
	 name Bus418;
	 phases ABC;
	 nominal_voltage 240.177712;
}

object node {
	 name Bus419;
	 phases ABC;
	 nominal_voltage 240.177712;
}

object node {
	 name Bus420;
	 phases ABC;
	 nominal_voltage 240.177712;
}

object node {
	 name Bus421;
	 phases ABC;
	 nominal_voltage 240.177712;
}

object node {
	 name Bus422;
	 phases ABC;
	 nominal_voltage 240.177712;
}

object node {
	 name Bus423;
	 phases ABC;
	 nominal_voltage 240.177712;
}

object node {
	 name Bus424;
	 phases ABC;
	 nominal_voltage 240.177712;
}

object node {
	 name Bus425;
	 phases ABC;
	 nominal_voltage 240.177712;
}

object node {
	 name Bus426;
	 phases ABC;
	 nominal_voltage 240.177712;
}

object node {
	 name Bus427;
	 phases ABC;
	 nominal_voltage 240.177712;
}

object node {
	 name Bus428;
	 phases ABC;
	 nominal_voltage 240.177712;
}

object node {
	 name Bus429;
	 phases ABC;
	 nominal_voltage 240.177712;
}

object node {
	 name Bus430;
	 phases ABC;
	 nominal_voltage 240.177712;
}

object node {
	 name Bus431;
	 phases ABC;
	 nominal_voltage 240.177712;
}

object node {
	 name Bus432;
	 phases ABC;
	 nominal_voltage 240.177712;
}

object node {
	 name Bus433;
	 phases ABC;
	 nominal_voltage 240.177712;
}

object node {
	 name Bus434;
	 phases ABC;
	 nominal_voltage 240.177712;
}

object node {
	 name Bus435;
	 phases ABC;
	 nominal_voltage 240.177712;
}

object node {
	 name Bus436;
	 phases ABC;
	 nominal_voltage 240.177712;
}

object node {
	 name Bus437;
	 phases ABC;
	 nominal_voltage 240.177712;
}

object node {
	 name Bus438;
	 phases ABC;
	 nominal_voltage 240.177712;
}

object node {
	 name Bus439;
	 phases ABC;
	 nominal_voltage 240.177712;
}

object node {
	 name Bus440;
	 phases ABC;
	 nominal_voltage 240.177712;
}

object node {
	 name Bus441;
	 phases ABC;
	 nominal_voltage 240.177712;
}

object node {
	 name Bus442;
	 phases ABC;
	 nominal_voltage 240.177712;
}

object node {
	 name Bus443;
	 phases ABC;
	 nominal_voltage 240.177712;
}

object node {
	 name Bus444;
	 phases ABC;
	 nominal_voltage 240.177712;
}

object node {
	 name Bus445;
	 phases ABC;
	 nominal_voltage 240.177712;
}

object node {
	 name Bus446;
	 phases ABC;
	 nominal_voltage 240.177712;
}

object node {
	 name Bus447;
	 phases ABC;
	 nominal_voltage 240.177712;
}

object node {
	 name Bus448;
	 phases ABC;
	 nominal_voltage 240.177712;
}

object node {
	 name Bus449;
	 phases ABC;
	 nominal_voltage 240.177712;
}

object node {
	 name Bus450;
	 phases ABC;
	 nominal_voltage 240.177712;
}

object node {
	 name Bus451;
	 phases ABC;
	 nominal_voltage 240.177712;
}

object node {
	 name Bus452;
	 phases ABC;
	 nominal_voltage 240.177712;
}

object node {
	 name Bus453;
	 phases ABC;
	 nominal_voltage 240.177712;
}

object node {
	 name Bus454;
	 phases ABC;
	 nominal_voltage 240.177712;
}

object node {
	 name Bus455;
	 phases ABC;
	 nominal_voltage 240.177712;
}

object node {
	 name Bus456;
	 phases ABC;
	 nominal_voltage 240.177712;
}

object node {
	 name Bus457;
	 phases ABC;
	 nominal_voltage 240.177712;
}

object node {
	 name Bus458;
	 phases ABC;
	 nominal_voltage 240.177712;
}

object node {
	 name Bus459;
	 phases ABC;
	 nominal_voltage 240.177712;
}

object node {
	 name Bus460;
	 phases ABC;
	 nominal_voltage 240.177712;
}

object node {
	 name Bus461;
	 phases ABC;
	 nominal_voltage 240.177712;
}

object node {
	 name Bus462;
	 phases ABC;
	 nominal_voltage 240.177712;
}

object node {
	 name Bus463;
	 phases ABC;
	 nominal_voltage 240.177712;
}

object node {
	 name Bus464;
	 phases ABC;
	 nominal_voltage 240.177712;
}

object node {
	 name Bus465;
	 phases ABC;
	 nominal_voltage 240.177712;
}

object node {
	 name Bus466;
	 phases ABC;
	 nominal_voltage 240.177712;
}

object node {
	 name Bus467;
	 phases ABC;
	 nominal_voltage 240.177712;
}

object node {
	 name Bus468;
	 phases ABC;
	 nominal_voltage 240.177712;
}

object node {
	 name Bus469;
	 phases ABC;
	 nominal_voltage 240.177712;
}

object node {
	 name Bus470;
	 phases ABC;
	 nominal_voltage 240.177712;
}

object node {
	 name Bus471;
	 phases ABC;
	 nominal_voltage 240.177712;
}

object node {
	 name Bus472;
	 phases ABC;
	 nominal_voltage 240.177712;
}

object node {
	 name Bus473;
	 phases ABC;
	 nominal_voltage 240.177712;
}

object node {
	 name Bus474;
	 phases ABC;
	 nominal_voltage 240.177712;
}

object node {
	 name Bus475;
	 phases ABC;
	 nominal_voltage 240.177712;
}

object node {
	 name Bus476;
	 phases ABC;
	 nominal_voltage 240.177712;
}

object node {
	 name Bus477;
	 phases ABC;
	 nominal_voltage 240.177712;
}

object node {
	 name Bus478;
	 phases ABC;
	 nominal_voltage 240.177712;
}

object node {
	 name Bus479;
	 phases ABC;
	 nominal_voltage 240.177712;
}

object node {
	 name Bus480;
	 phases ABC;
	 nominal_voltage 240.177712;
}

object node {
	 name Bus481;
	 phases ABC;
	 nominal_voltage 240.177712;
}

object node {
	 name Bus482;
	 phases ABC;
	 nominal_voltage 240.177712;
}

object node {
	 name Bus483;
	 phases ABC;
	 nominal_voltage 240.177712;
}

object node {
	 name Bus484;
	 phases ABC;
	 nominal_voltage 240.177712;
}

object node {
	 name Bus485;
	 phases ABC;
	 nominal_voltage 240.177712;
}

object node {
	 name Bus486;
	 phases ABC;
	 nominal_voltage 240.177712;
}

object node {
	 name Bus487;
	 phases ABC;
	 nominal_voltage 240.177712;
}

object node {
	 name Bus488;
	 phases ABC;
	 nominal_voltage 240.177712;
}

object node {
	 name Bus489;
	 phases ABC;
	 nominal_voltage 240.177712;
}

object node {
	 name Bus490;
	 phases ABC;
	 nominal_voltage 240.177712;
}

object node {
	 name Bus491;
	 phases ABC;
	 nominal_voltage 240.177712;
}

object node {
	 name Bus492;
	 phases ABC;
	 nominal_voltage 240.177712;
}

object node {
	 name Bus493;
	 phases ABC;
	 nominal_voltage 240.177712;
}

object node {
	 name Bus494;
	 phases ABC;
	 nominal_voltage 240.177712;
}

object node {
	 name Bus495;
	 phases ABC;
	 nominal_voltage 240.177712;
}

object node {
	 name Bus496;
	 phases ABC;
	 nominal_voltage 240.177712;
}

object node {
	 name Bus497;
	 phases ABC;
	 nominal_voltage 240.177712;
}

object node {
	 name Bus498;
	 phases ABC;
	 nominal_voltage 240.177712;
}

object node {
	 name Bus499;
	 phases ABC;
	 nominal_voltage 240.177712;
}

object node {
	 name Bus500;
	 phases ABC;
	 nominal_voltage 240.177712;
}

object node {
	 name Bus501;
	 phases ABC;
	 nominal_voltage 240.177712;
}

object node {
	 name Bus502;
	 phases ABC;
	 nominal_voltage 240.177712;
}

object node {
	 name Bus503;
	 phases ABC;
	 nominal_voltage 240.177712;
}

object node {
	 name Bus504;
	 phases ABC;
	 nominal_voltage 240.177712;
}

object node {
	 name Bus505;
	 phases ABC;
	 nominal_voltage 240.177712;
}

object node {
	 name Bus506;
	 phases ABC;
	 nominal_voltage 240.177712;
}

object node {
	 name Bus507;
	 phases ABC;
	 nominal_voltage 240.177712;
}

object node {
	 name Bus508;
	 phases ABC;
	 nominal_voltage 240.177712;
}

object node {
	 name Bus509;
	 phases ABC;
	 nominal_voltage 240.177712;
}

object node {
	 name Bus510;
	 phases ABC;
	 nominal_voltage 240.177712;
}

object node {
	 name Bus511;
	 phases ABC;
	 nominal_voltage 240.177712;
}

object node {
	 name Bus512;
	 phases ABC;
	 nominal_voltage 240.177712;
}

object node {
	 name Bus513;
	 phases ABC;
	 nominal_voltage 240.177712;
}

object node {
	 name Bus514;
	 phases ABC;
	 nominal_voltage 240.177712;
}

object node {
	 name Bus515;
	 phases ABC;
	 nominal_voltage 240.177712;
}

object node {
	 name Bus516;
	 phases ABC;
	 nominal_voltage 240.177712;
}

object node {
	 name Bus517;
	 phases ABC;
	 nominal_voltage 240.177712;
}

object node {
	 name Bus518;
	 phases ABC;
	 nominal_voltage 240.177712;
}

object node {
	 name Bus519;
	 phases ABC;
	 nominal_voltage 240.177712;
}

object node {
	 name Bus520;
	 phases ABC;
	 nominal_voltage 240.177712;
}

object node {
	 name Bus521;
	 phases ABC;
	 nominal_voltage 240.177712;
}

object node {
	 name Bus522;
	 phases ABC;
	 nominal_voltage 240.177712;
}

object node {
	 name Bus523;
	 phases ABC;
	 nominal_voltage 240.177712;
}

object node {
	 name Bus524;
	 phases ABC;
	 nominal_voltage 240.177712;
}

object node {
	 name Bus525;
	 phases ABC;
	 nominal_voltage 240.177712;
}

object node {
	 name Bus526;
	 phases ABC;
	 nominal_voltage 240.177712;
}

object node {
	 name Bus527;
	 phases ABC;
	 nominal_voltage 240.177712;
}

object node {
	 name Bus528;
	 phases ABC;
	 nominal_voltage 240.177712;
}

object node {
	 name Bus529;
	 phases ABC;
	 nominal_voltage 240.177712;
}

object node {
	 name Bus530;
	 phases ABC;
	 nominal_voltage 240.177712;
}

object node {
	 name Bus531;
	 phases ABC;
	 nominal_voltage 240.177712;
}

object node {
	 name Bus532;
	 phases ABC;
	 nominal_voltage 240.177712;
}

object node {
	 name Bus533;
	 phases ABC;
	 nominal_voltage 240.177712;
}

object node {
	 name Bus534;
	 phases ABC;
	 nominal_voltage 240.177712;
}

object node {
	 name Bus535;
	 phases ABC;
	 nominal_voltage 240.177712;
}

object node {
	 name Bus536;
	 phases ABC;
	 nominal_voltage 240.177712;
}

object node {
	 name Bus537;
	 phases ABC;
	 nominal_voltage 240.177712;
}

object node {
	 name Bus538;
	 phases ABC;
	 nominal_voltage 240.177712;
}

object node {
	 name Bus539;
	 phases ABC;
	 nominal_voltage 240.177712;
}

object node {
	 name Bus540;
	 phases ABC;
	 nominal_voltage 240.177712;
}

object node {
	 name Bus541;
	 phases ABC;
	 nominal_voltage 240.177712;
}

object node {
	 name Bus542;
	 phases ABC;
	 nominal_voltage 240.177712;
}

object node {
	 name Bus543;
	 phases ABC;
	 nominal_voltage 240.177712;
}

object node {
	 name Bus544;
	 phases ABC;
	 nominal_voltage 240.177712;
}

object node {
	 name Bus545;
	 phases ABC;
	 nominal_voltage 240.177712;
}

object node {
	 name Bus546;
	 phases ABC;
	 nominal_voltage 240.177712;
}

object node {
	 name Bus547;
	 phases ABC;
	 nominal_voltage 240.177712;
}

object node {
	 name Bus548;
	 phases ABC;
	 nominal_voltage 240.177712;
}

object node {
	 name Bus549;
	 phases ABC;
	 nominal_voltage 240.177712;
}

object node {
	 name Bus550;
	 phases ABC;
	 nominal_voltage 240.177712;
}

object node {
	 name Bus551;
	 phases ABC;
	 nominal_voltage 240.177712;
}

object node {
	 name Bus552;
	 phases ABC;
	 nominal_voltage 240.177712;
}

object node {
	 name Bus553;
	 phases ABC;
	 nominal_voltage 240.177712;
}

object node {
	 name Bus554;
	 phases ABC;
	 nominal_voltage 240.177712;
}

object node {
	 name Bus555;
	 phases ABC;
	 nominal_voltage 240.177712;
}

object node {
	 name Bus556;
	 phases ABC;
	 nominal_voltage 240.177712;
}

object node {
	 name Bus557;
	 phases ABC;
	 nominal_voltage 240.177712;
}

object node {
	 name Bus558;
	 phases ABC;
	 nominal_voltage 240.177712;
}

object node {
	 name Bus559;
	 phases ABC;
	 nominal_voltage 240.177712;
}

object node {
	 name Bus560;
	 phases ABC;
	 nominal_voltage 240.177712;
}

object node {
	 name Bus561;
	 phases ABC;
	 nominal_voltage 240.177712;
}

object node {
	 name Bus562;
	 phases ABC;
	 nominal_voltage 240.177712;
}

object node {
	 name Bus563;
	 phases ABC;
	 nominal_voltage 240.177712;
}

object node {
	 name Bus564;
	 phases ABC;
	 nominal_voltage 240.177712;
}

object node {
	 name Bus565;
	 phases ABC;
	 nominal_voltage 240.177712;
}

object node {
	 name Bus566;
	 phases ABC;
	 nominal_voltage 240.177712;
}

object node {
	 name Bus567;
	 phases ABC;
	 nominal_voltage 240.177712;
}

object node {
	 name Bus568;
	 phases ABC;
	 nominal_voltage 240.177712;
}

object node {
	 name Bus569;
	 phases ABC;
	 nominal_voltage 240.177712;
}

object node {
	 name Bus570;
	 phases ABC;
	 nominal_voltage 240.177712;
}

object node {
	 name Bus571;
	 phases ABC;
	 nominal_voltage 240.177712;
}

object node {
	 name Bus572;
	 phases ABC;
	 nominal_voltage 240.177712;
}

object node {
	 name Bus573;
	 phases ABC;
	 nominal_voltage 240.177712;
}

object node {
	 name Bus574;
	 phases ABC;
	 nominal_voltage 240.177712;
}

object node {
	 name Bus575;
	 phases ABC;
	 nominal_voltage 240.177712;
}

object node {
	 name Bus576;
	 phases ABC;
	 nominal_voltage 240.177712;
}

object node {
	 name Bus577;
	 phases ABC;
	 nominal_voltage 240.177712;
}

object node {
	 name Bus578;
	 phases ABC;
	 nominal_voltage 240.177712;
}

object node {
	 name Bus579;
	 phases ABC;
	 nominal_voltage 240.177712;
}

object node {
	 name Bus580;
	 phases ABC;
	 nominal_voltage 240.177712;
}

object node {
	 name Bus581;
	 phases ABC;
	 nominal_voltage 240.177712;
}

object node {
	 name Bus582;
	 phases ABC;
	 nominal_voltage 240.177712;
}

object node {
	 name Bus583;
	 phases ABC;
	 nominal_voltage 240.177712;
}

object node {
	 name Bus584;
	 phases ABC;
	 nominal_voltage 240.177712;
}

object node {
	 name Bus585;
	 phases ABC;
	 nominal_voltage 240.177712;
}

object node {
	 name Bus586;
	 phases ABC;
	 nominal_voltage 240.177712;
}

object node {
	 name Bus587;
	 phases ABC;
	 nominal_voltage 240.177712;
}

object node {
	 name Bus588;
	 phases ABC;
	 nominal_voltage 240.177712;
}

object node {
	 name Bus589;
	 phases ABC;
	 nominal_voltage 240.177712;
}

object node {
	 name Bus590;
	 phases ABC;
	 nominal_voltage 240.177712;
}

object node {
	 name Bus591;
	 phases ABC;
	 nominal_voltage 240.177712;
}

object node {
	 name Bus592;
	 phases ABC;
	 nominal_voltage 240.177712;
}

object node {
	 name Bus593;
	 phases ABC;
	 nominal_voltage 240.177712;
}

object node {
	 name Bus594;
	 phases ABC;
	 nominal_voltage 240.177712;
}

object node {
	 name Bus595;
	 phases ABC;
	 nominal_voltage 240.177712;
}

object node {
	 name Bus596;
	 phases ABC;
	 nominal_voltage 240.177712;
}

object node {
	 name Bus597;
	 phases ABC;
	 nominal_voltage 240.177712;
}

object node {
	 name Bus598;
	 phases ABC;
	 nominal_voltage 240.177712;
}

object node {
	 name Bus599;
	 phases ABC;
	 nominal_voltage 240.177712;
}

object node {
	 name Bus600;
	 phases ABC;
	 nominal_voltage 240.177712;
}

object node {
	 name Bus601;
	 phases ABC;
	 nominal_voltage 240.177712;
}

object node {
	 name Bus602;
	 phases ABC;
	 nominal_voltage 240.177712;
}

object node {
	 name Bus603;
	 phases ABC;
	 nominal_voltage 240.177712;
}

object node {
	 name Bus604;
	 phases ABC;
	 nominal_voltage 240.177712;
}

object node {
	 name Bus605;
	 phases ABC;
	 nominal_voltage 240.177712;
}

object node {
	 name Bus606;
	 phases ABC;
	 nominal_voltage 240.177712;
}

object node {
	 name Bus607;
	 phases ABC;
	 nominal_voltage 240.177712;
}

object node {
	 name Bus608;
	 phases ABC;
	 nominal_voltage 240.177712;
}

object node {
	 name Bus609;
	 phases ABC;
	 nominal_voltage 240.177712;
}

object node {
	 name Bus610;
	 phases ABC;
	 nominal_voltage 240.177712;
}

object node {
	 name Bus611;
	 phases ABC;
	 nominal_voltage 240.177712;
}

object node {
	 name Bus612;
	 phases ABC;
	 nominal_voltage 240.177712;
}

object node {
	 name Bus613;
	 phases ABC;
	 nominal_voltage 240.177712;
}

object node {
	 name Bus614;
	 phases ABC;
	 nominal_voltage 240.177712;
}

object node {
	 name Bus615;
	 phases ABC;
	 nominal_voltage 240.177712;
}

object node {
	 name Bus616;
	 phases ABC;
	 nominal_voltage 240.177712;
}

object node {
	 name Bus617;
	 phases ABC;
	 nominal_voltage 240.177712;
}

object node {
	 name Bus618;
	 phases ABC;
	 nominal_voltage 240.177712;
}

object node {
	 name Bus619;
	 phases ABC;
	 nominal_voltage 240.177712;
}

object node {
	 name Bus620;
	 phases ABC;
	 nominal_voltage 240.177712;
}

object node {
	 name Bus621;
	 phases ABC;
	 nominal_voltage 240.177712;
}

object node {
	 name Bus622;
	 phases ABC;
	 nominal_voltage 240.177712;
}

object node {
	 name Bus623;
	 phases ABC;
	 nominal_voltage 240.177712;
}

object node {
	 name Bus624;
	 phases ABC;
	 nominal_voltage 240.177712;
}

object node {
	 name Bus625;
	 phases ABC;
	 nominal_voltage 240.177712;
}

object node {
	 name Bus626;
	 phases ABC;
	 nominal_voltage 240.177712;
}

object node {
	 name Bus627;
	 phases ABC;
	 nominal_voltage 240.177712;
}

object node {
	 name Bus628;
	 phases ABC;
	 nominal_voltage 240.177712;
}

object node {
	 name Bus629;
	 phases ABC;
	 nominal_voltage 240.177712;
}

object node {
	 name Bus630;
	 phases ABC;
	 nominal_voltage 240.177712;
}

object node {
	 name Bus631;
	 phases ABC;
	 nominal_voltage 240.177712;
}

object node {
	 name Bus632;
	 phases ABC;
	 nominal_voltage 240.177712;
}

object node {
	 name Bus633;
	 phases ABC;
	 nominal_voltage 240.177712;
}

object node {
	 name Bus634;
	 phases ABC;
	 nominal_voltage 240.177712;
}

object node {
	 name Bus635;
	 phases ABC;
	 nominal_voltage 240.177712;
}

object node {
	 name Bus636;
	 phases ABC;
	 nominal_voltage 240.177712;
}

object node {
	 name Bus637;
	 phases ABC;
	 nominal_voltage 240.177712;
}

object node {
	 name Bus638;
	 phases ABC;
	 nominal_voltage 240.177712;
}

object node {
	 name Bus639;
	 phases ABC;
	 nominal_voltage 240.177712;
}

object node {
	 name Bus640;
	 phases ABC;
	 nominal_voltage 240.177712;
}

object node {
	 name Bus641;
	 phases ABC;
	 nominal_voltage 240.177712;
}

object node {
	 name Bus642;
	 phases ABC;
	 nominal_voltage 240.177712;
}

object node {
	 name Bus643;
	 phases ABC;
	 nominal_voltage 240.177712;
}

object node {
	 name Bus644;
	 phases ABC;
	 nominal_voltage 240.177712;
}

object node {
	 name Bus645;
	 phases ABC;
	 nominal_voltage 240.177712;
}

object node {
	 name Bus646;
	 phases ABC;
	 nominal_voltage 240.177712;
}

object node {
	 name Bus647;
	 phases ABC;
	 nominal_voltage 240.177712;
}

object node {
	 name Bus648;
	 phases ABC;
	 nominal_voltage 240.177712;
}

object node {
	 name Bus649;
	 phases ABC;
	 nominal_voltage 240.177712;
}

object node {
	 name Bus650;
	 phases ABC;
	 nominal_voltage 240.177712;
}

object node {
	 name Bus651;
	 phases ABC;
	 nominal_voltage 240.177712;
}

object node {
	 name Bus652;
	 phases ABC;
	 nominal_voltage 240.177712;
}

object node {
	 name Bus653;
	 phases ABC;
	 nominal_voltage 240.177712;
}

object node {
	 name Bus654;
	 phases ABC;
	 nominal_voltage 240.177712;
}

object node {
	 name Bus655;
	 phases ABC;
	 nominal_voltage 240.177712;
}

object node {
	 name Bus656;
	 phases ABC;
	 nominal_voltage 240.177712;
}

object node {
	 name Bus657;
	 phases ABC;
	 nominal_voltage 240.177712;
}

object node {
	 name Bus658;
	 phases ABC;
	 nominal_voltage 240.177712;
}

object node {
	 name Bus659;
	 phases ABC;
	 nominal_voltage 240.177712;
}

object node {
	 name Bus660;
	 phases ABC;
	 nominal_voltage 240.177712;
}

object node {
	 name Bus661;
	 phases ABC;
	 nominal_voltage 240.177712;
}

object node {
	 name Bus662;
	 phases ABC;
	 nominal_voltage 240.177712;
}

object node {
	 name Bus663;
	 phases ABC;
	 nominal_voltage 240.177712;
}

object node {
	 name Bus664;
	 phases ABC;
	 nominal_voltage 240.177712;
}

object node {
	 name Bus665;
	 phases ABC;
	 nominal_voltage 240.177712;
}

object node {
	 name Bus666;
	 phases ABC;
	 nominal_voltage 240.177712;
}

object node {
	 name Bus667;
	 phases ABC;
	 nominal_voltage 240.177712;
}

object node {
	 name Bus668;
	 phases ABC;
	 nominal_voltage 240.177712;
}

object node {
	 name Bus669;
	 phases ABC;
	 nominal_voltage 240.177712;
}

object node {
	 name Bus670;
	 phases ABC;
	 nominal_voltage 240.177712;
}

object node {
	 name Bus671;
	 phases ABC;
	 nominal_voltage 240.177712;
}

object node {
	 name Bus672;
	 phases ABC;
	 nominal_voltage 240.177712;
}

object node {
	 name Bus673;
	 phases ABC;
	 nominal_voltage 240.177712;
}

object node {
	 name Bus674;
	 phases ABC;
	 nominal_voltage 240.177712;
}

object node {
	 name Bus675;
	 phases ABC;
	 nominal_voltage 240.177712;
}

object node {
	 name Bus676;
	 phases ABC;
	 nominal_voltage 240.177712;
}

object node {
	 name Bus677;
	 phases ABC;
	 nominal_voltage 240.177712;
}

object node {
	 name Bus678;
	 phases ABC;
	 nominal_voltage 240.177712;
}

object node {
	 name Bus679;
	 phases ABC;
	 nominal_voltage 240.177712;
}

object node {
	 name Bus680;
	 phases ABC;
	 nominal_voltage 240.177712;
}

object node {
	 name Bus681;
	 phases ABC;
	 nominal_voltage 240.177712;
}

object node {
	 name Bus682;
	 phases ABC;
	 nominal_voltage 240.177712;
}

object node {
	 name Bus683;
	 phases ABC;
	 nominal_voltage 240.177712;
}

object node {
	 name Bus684;
	 phases ABC;
	 nominal_voltage 240.177712;
}

object node {
	 name Bus685;
	 phases ABC;
	 nominal_voltage 240.177712;
}

object node {
	 name Bus686;
	 phases ABC;
	 nominal_voltage 240.177712;
}

object node {
	 name Bus687;
	 phases ABC;
	 nominal_voltage 240.177712;
}

object node {
	 name Bus688;
	 phases ABC;
	 nominal_voltage 240.177712;
}

object node {
	 name Bus689;
	 phases ABC;
	 nominal_voltage 240.177712;
}

object node {
	 name Bus690;
	 phases ABC;
	 nominal_voltage 240.177712;
}

object node {
	 name Bus691;
	 phases ABC;
	 nominal_voltage 240.177712;
}

object node {
	 name Bus692;
	 phases ABC;
	 nominal_voltage 240.177712;
}

object node {
	 name Bus693;
	 phases ABC;
	 nominal_voltage 240.177712;
}

object node {
	 name Bus694;
	 phases ABC;
	 nominal_voltage 240.177712;
}

object node {
	 name Bus695;
	 phases ABC;
	 nominal_voltage 240.177712;
}

object node {
	 name Bus696;
	 phases ABC;
	 nominal_voltage 240.177712;
}

object node {
	 name Bus697;
	 phases ABC;
	 nominal_voltage 240.177712;
}

object node {
	 name Bus698;
	 phases ABC;
	 nominal_voltage 240.177712;
}

object node {
	 name Bus699;
	 phases ABC;
	 nominal_voltage 240.177712;
}

object node {
	 name Bus700;
	 phases ABC;
	 nominal_voltage 240.177712;
}

object node {
	 name Bus701;
	 phases ABC;
	 nominal_voltage 240.177712;
}

object node {
	 name Bus702;
	 phases ABC;
	 nominal_voltage 240.177712;
}

object node {
	 name Bus703;
	 phases ABC;
	 nominal_voltage 240.177712;
}

object node {
	 name Bus704;
	 phases ABC;
	 nominal_voltage 240.177712;
}

object node {
	 name Bus705;
	 phases ABC;
	 nominal_voltage 240.177712;
}

object node {
	 name Bus706;
	 phases ABC;
	 nominal_voltage 240.177712;
}

object node {
	 name Bus707;
	 phases ABC;
	 nominal_voltage 240.177712;
}

object node {
	 name Bus708;
	 phases ABC;
	 nominal_voltage 240.177712;
}

object node {
	 name Bus709;
	 phases ABC;
	 nominal_voltage 240.177712;
}

object node {
	 name Bus710;
	 phases ABC;
	 nominal_voltage 240.177712;
}

object node {
	 name Bus711;
	 phases ABC;
	 nominal_voltage 240.177712;
}

object node {
	 name Bus712;
	 phases ABC;
	 nominal_voltage 240.177712;
}

object node {
	 name Bus713;
	 phases ABC;
	 nominal_voltage 240.177712;
}

object node {
	 name Bus714;
	 phases ABC;
	 nominal_voltage 240.177712;
}

object node {
	 name Bus715;
	 phases ABC;
	 nominal_voltage 240.177712;
}

object node {
	 name Bus716;
	 phases ABC;
	 nominal_voltage 240.177712;
}

object node {
	 name Bus717;
	 phases ABC;
	 nominal_voltage 240.177712;
}

object node {
	 name Bus718;
	 phases ABC;
	 nominal_voltage 240.177712;
}

object node {
	 name Bus719;
	 phases ABC;
	 nominal_voltage 240.177712;
}

object node {
	 name Bus720;
	 phases ABC;
	 nominal_voltage 240.177712;
}

object node {
	 name Bus721;
	 phases ABC;
	 nominal_voltage 240.177712;
}

object node {
	 name Bus722;
	 phases ABC;
	 nominal_voltage 240.177712;
}

object node {
	 name Bus723;
	 phases ABC;
	 nominal_voltage 240.177712;
}

object node {
	 name Bus724;
	 phases ABC;
	 nominal_voltage 240.177712;
}

object node {
	 name Bus725;
	 phases ABC;
	 nominal_voltage 240.177712;
}

object node {
	 name Bus726;
	 phases ABC;
	 nominal_voltage 240.177712;
}

object node {
	 name Bus727;
	 phases ABC;
	 nominal_voltage 240.177712;
}

object node {
	 name Bus728;
	 phases ABC;
	 nominal_voltage 240.177712;
}

object node {
	 name Bus729;
	 phases ABC;
	 nominal_voltage 240.177712;
}

object node {
	 name Bus730;
	 phases ABC;
	 nominal_voltage 240.177712;
}

object node {
	 name Bus731;
	 phases ABC;
	 nominal_voltage 240.177712;
}

object node {
	 name Bus732;
	 phases ABC;
	 nominal_voltage 240.177712;
}

object node {
	 name Bus733;
	 phases ABC;
	 nominal_voltage 240.177712;
}

object node {
	 name Bus734;
	 phases ABC;
	 nominal_voltage 240.177712;
}

object node {
	 name Bus735;
	 phases ABC;
	 nominal_voltage 240.177712;
}

object node {
	 name Bus736;
	 phases ABC;
	 nominal_voltage 240.177712;
}

object node {
	 name Bus737;
	 phases ABC;
	 nominal_voltage 240.177712;
}

object node {
	 name Bus738;
	 phases ABC;
	 nominal_voltage 240.177712;
}

object node {
	 name Bus739;
	 phases ABC;
	 nominal_voltage 240.177712;
}

object node {
	 name Bus740;
	 phases ABC;
	 nominal_voltage 240.177712;
}

object node {
	 name Bus741;
	 phases ABC;
	 nominal_voltage 240.177712;
}

object node {
	 name Bus742;
	 phases ABC;
	 nominal_voltage 240.177712;
}

object node {
	 name Bus743;
	 phases ABC;
	 nominal_voltage 240.177712;
}

object node {
	 name Bus744;
	 phases ABC;
	 nominal_voltage 240.177712;
}

object node {
	 name Bus745;
	 phases ABC;
	 nominal_voltage 240.177712;
}

object node {
	 name Bus746;
	 phases ABC;
	 nominal_voltage 240.177712;
}

object node {
	 name Bus747;
	 phases ABC;
	 nominal_voltage 240.177712;
}

object node {
	 name Bus748;
	 phases ABC;
	 nominal_voltage 240.177712;
}

object node {
	 name Bus749;
	 phases ABC;
	 nominal_voltage 240.177712;
}

object node {
	 name Bus750;
	 phases ABC;
	 nominal_voltage 240.177712;
}

object node {
	 name Bus751;
	 phases ABC;
	 nominal_voltage 240.177712;
}

object node {
	 name Bus752;
	 phases ABC;
	 nominal_voltage 240.177712;
}

object node {
	 name Bus753;
	 phases ABC;
	 nominal_voltage 240.177712;
}

object node {
	 name Bus754;
	 phases ABC;
	 nominal_voltage 240.177712;
}

object node {
	 name Bus755;
	 phases ABC;
	 nominal_voltage 240.177712;
}

object node {
	 name Bus756;
	 phases ABC;
	 nominal_voltage 240.177712;
}

object node {
	 name Bus757;
	 phases ABC;
	 nominal_voltage 240.177712;
}

object node {
	 name Bus758;
	 phases ABC;
	 nominal_voltage 240.177712;
}

object node {
	 name Bus759;
	 phases ABC;
	 nominal_voltage 240.177712;
}

object node {
	 name Bus760;
...